Circuit: * D:\SRM & Docs\SEM 4\AEC Experiments\Mini Project\Mains Detector.asc

Direct Newton iteration for .op point succeeded.

Date: Sun Jun 27 23:47:33 2021
Total elapsed time: 0.202 seconds.

tnom = 27
temp = 27
method = modified trap
totiter = 2104
traniter = 2082
tranpoints = 1042
accept = 1042
rejected = 0
matrix size = 18
fillins = 0
solver = Normal
Matrix Compiler1: 1.29 KB object code size  0.4/0.3/[0.2]
Matrix Compiler2: off  [0.2]/0.3/0.3

